*SPEF "ieee 1481-1999"
*DESIGN "tiny_user_project"
*DATE "11:11:11 Fri 11 11, 1111"
*VENDOR "OpenRCX"
*PROGRAM "Parallel Extraction"
*VERSION "1.0"
*DESIGN_FLOW "NAME_SCOPE LOCAL" "PIN_CAP NONE"
*DIVIDER /
*DELIMITER :
*BUS_DELIMITER []
*T_UNIT 1 NS
*C_UNIT 1 PF
*R_UNIT 1 OHM
*L_UNIT 1 HENRY

*NAME_MAP
*1 io_in[0]
*2 io_in[10]
*3 io_in[11]
*4 io_in[12]
*5 io_in[13]
*6 io_in[14]
*7 io_in[15]
*8 io_in[16]
*9 io_in[17]
*10 io_in[18]
*11 io_in[19]
*12 io_in[1]
*13 io_in[20]
*14 io_in[21]
*15 io_in[22]
*16 io_in[23]
*17 io_in[24]
*18 io_in[25]
*19 io_in[26]
*20 io_in[27]
*21 io_in[28]
*22 io_in[29]
*23 io_in[2]
*24 io_in[30]
*25 io_in[31]
*26 io_in[32]
*27 io_in[33]
*28 io_in[34]
*29 io_in[35]
*30 io_in[36]
*31 io_in[37]
*32 io_in[3]
*33 io_in[4]
*34 io_in[5]
*35 io_in[6]
*36 io_in[7]
*37 io_in[8]
*38 io_in[9]
*39 net55
*40 net65
*41 net66
*42 net67
*43 net68
*44 net69
*45 net70
*46 net71
*47 net72
*48 net73
*49 net74
*50 net56
*51 net75
*52 net76
*53 net77
*54 net78
*55 net79
*56 net80
*57 net81
*58 net82
*59 net83
*60 net84
*61 net57
*62 net85
*63 net86
*64 net87
*65 net88
*66 net89
*67 net90
*68 net91
*69 net92
*70 net58
*71 net59
*72 net60
*73 net61
*74 net62
*75 net63
*76 net64
*77 net29
*78 net39
*79 net40
*80 net41
*81 net42
*82 net43
*83 net44
*84 net45
*85 net46
*86 net47
*87 net48
*88 net30
*89 net49
*90 net50
*91 net51
*92 net52
*93 io_out[24]
*94 io_out[25]
*95 io_out[26]
*96 io_out[27]
*97 io_out[28]
*98 io_out[29]
*99 net31
*100 io_out[30]
*101 io_out[31]
*102 io_out[32]
*103 io_out[33]
*104 io_out[34]
*105 io_out[35]
*106 net53
*107 net54
*108 net32
*109 net33
*110 net34
*111 net35
*112 net36
*113 net37
*114 net38
*117 _000_
*118 _001_
*119 _002_
*120 _003_
*121 _004_
*122 _005_
*123 _006_
*124 _007_
*125 _008_
*126 _009_
*127 _010_
*128 _011_
*129 _012_
*130 _013_
*131 _014_
*132 _015_
*133 _016_
*134 _017_
*135 _018_
*136 _019_
*137 _020_
*138 mod\.gate10\.b
*139 mod\.gate16\.b
*140 mod\.gate22\.b
*141 mod\.gate28\.b
*142 mod\.gate34\.b
*143 mod\.gate40\.b
*144 mod\.gate46\.b
*145 mod\.gate52\.b
*146 mod\.gate58\.b
*147 mod\.gate64\.out
*148 mod\.gate66\.out
*149 mod\.gate68\.out
*150 mod\.gate7\.out
*151 mod\.gate79\.out
*152 mod\.gate81\.out
*153 mod\.gate83\.out
*154 mod\.gate85\.out
*155 mod\.gate87\.out
*156 mod\.gate93\.out
*157 net1
*158 net10
*159 net11
*160 net12
*161 net13
*162 net14
*163 net15
*164 net16
*165 net17
*166 net18
*167 net19
*168 net2
*169 net20
*170 net21
*171 net22
*172 net23
*173 net24
*174 net25
*175 net26
*176 net27
*177 net28
*178 net3
*179 net4
*180 net5
*181 net6
*182 net7
*183 net8
*184 net9
*185 ANTENNA_input10_A
*186 ANTENNA_input11_A
*187 ANTENNA_input12_A
*188 ANTENNA_input13_A
*189 ANTENNA_input14_A
*190 ANTENNA_input15_A
*191 ANTENNA_input16_A
*192 ANTENNA_input1_A
*193 ANTENNA_input2_A
*194 ANTENNA_input3_A
*195 ANTENNA_input4_A
*196 ANTENNA_input5_A
*197 ANTENNA_input6_A
*198 ANTENNA_input7_A
*199 ANTENNA_input8_A
*200 ANTENNA_input9_A
*201 ANTENNA_output23_A
*202 ANTENNA_output28_A
*203 FILLER_0_109
*204 FILLER_0_113
*205 FILLER_0_125
*206 FILLER_0_137
*207 FILLER_0_141
*208 FILLER_0_15
*209 FILLER_0_153
*210 FILLER_0_165
*211 FILLER_0_169
*212 FILLER_0_181
*213 FILLER_0_193
*214 FILLER_0_197
*215 FILLER_0_209
*216 FILLER_0_221
*217 FILLER_0_225
*218 FILLER_0_237
*219 FILLER_0_249
*220 FILLER_0_253
*221 FILLER_0_265
*222 FILLER_0_27
*223 FILLER_0_277
*224 FILLER_0_281
*225 FILLER_0_29
*226 FILLER_0_293
*227 FILLER_0_3
*228 FILLER_0_41
*229 FILLER_0_53
*230 FILLER_0_57
*231 FILLER_0_69
*232 FILLER_0_81
*233 FILLER_0_85
*234 FILLER_0_97
*235 FILLER_10_109
*236 FILLER_10_121
*237 FILLER_10_133
*238 FILLER_10_139
*239 FILLER_10_141
*240 FILLER_10_15
*241 FILLER_10_153
*242 FILLER_10_165
*243 FILLER_10_177
*244 FILLER_10_189
*245 FILLER_10_195
*246 FILLER_10_197
*247 FILLER_10_209
*248 FILLER_10_221
*249 FILLER_10_233
*250 FILLER_10_245
*251 FILLER_10_251
*252 FILLER_10_253
*253 FILLER_10_265
*254 FILLER_10_27
*255 FILLER_10_277
*256 FILLER_10_289
*257 FILLER_10_29
*258 FILLER_10_293
*259 FILLER_10_297
*260 FILLER_10_3
*261 FILLER_10_41
*262 FILLER_10_53
*263 FILLER_10_65
*264 FILLER_10_77
*265 FILLER_10_83
*266 FILLER_10_85
*267 FILLER_10_9
*268 FILLER_10_97
*269 FILLER_11_105
*270 FILLER_11_111
*271 FILLER_11_113
*272 FILLER_11_125
*273 FILLER_11_137
*274 FILLER_11_149
*275 FILLER_11_15
*276 FILLER_11_161
*277 FILLER_11_167
*278 FILLER_11_169
*279 FILLER_11_181
*280 FILLER_11_193
*281 FILLER_11_205
*282 FILLER_11_217
*283 FILLER_11_223
*284 FILLER_11_225
*285 FILLER_11_237
*286 FILLER_11_249
*287 FILLER_11_261
*288 FILLER_11_27
*289 FILLER_11_273
*290 FILLER_11_279
*291 FILLER_11_281
*292 FILLER_11_293
*293 FILLER_11_3
*294 FILLER_11_39
*295 FILLER_11_51
*296 FILLER_11_55
*297 FILLER_11_57
*298 FILLER_11_69
*299 FILLER_11_81
*300 FILLER_11_93
*301 FILLER_12_109
*302 FILLER_12_121
*303 FILLER_12_133
*304 FILLER_12_139
*305 FILLER_12_141
*306 FILLER_12_15
*307 FILLER_12_153
*308 FILLER_12_165
*309 FILLER_12_177
*310 FILLER_12_189
*311 FILLER_12_195
*312 FILLER_12_197
*313 FILLER_12_209
*314 FILLER_12_221
*315 FILLER_12_233
*316 FILLER_12_245
*317 FILLER_12_251
*318 FILLER_12_253
*319 FILLER_12_265
*320 FILLER_12_27
*321 FILLER_12_277
*322 FILLER_12_289
*323 FILLER_12_29
*324 FILLER_12_293
*325 FILLER_12_297
*326 FILLER_12_3
*327 FILLER_12_41
*328 FILLER_12_53
*329 FILLER_12_65
*330 FILLER_12_77
*331 FILLER_12_83
*332 FILLER_12_85
*333 FILLER_12_97
*334 FILLER_13_105
*335 FILLER_13_111
*336 FILLER_13_113
*337 FILLER_13_125
*338 FILLER_13_137
*339 FILLER_13_149
*340 FILLER_13_161
*341 FILLER_13_167
*342 FILLER_13_169
*343 FILLER_13_181
*344 FILLER_13_193
*345 FILLER_13_20
*346 FILLER_13_205
*347 FILLER_13_217
*348 FILLER_13_223
*349 FILLER_13_225
*350 FILLER_13_237
*351 FILLER_13_249
*352 FILLER_13_261
*353 FILLER_13_273
*354 FILLER_13_279
*355 FILLER_13_281
*356 FILLER_13_293
*357 FILLER_13_297
*358 FILLER_13_3
*359 FILLER_13_32
*360 FILLER_13_44
*361 FILLER_13_57
*362 FILLER_13_69
*363 FILLER_13_8
*364 FILLER_13_81
*365 FILLER_13_93
*366 FILLER_14_109
*367 FILLER_14_121
*368 FILLER_14_133
*369 FILLER_14_139
*370 FILLER_14_141
*371 FILLER_14_153
*372 FILLER_14_165
*373 FILLER_14_177
*374 FILLER_14_189
*375 FILLER_14_195
*376 FILLER_14_197
*377 FILLER_14_209
*378 FILLER_14_21
*379 FILLER_14_221
*380 FILLER_14_233
*381 FILLER_14_245
*382 FILLER_14_251
*383 FILLER_14_253
*384 FILLER_14_265
*385 FILLER_14_27
*386 FILLER_14_277
*387 FILLER_14_289
*388 FILLER_14_29
*389 FILLER_14_297
*390 FILLER_14_3
*391 FILLER_14_41
*392 FILLER_14_53
*393 FILLER_14_65
*394 FILLER_14_77
*395 FILLER_14_83
*396 FILLER_14_85
*397 FILLER_14_9
*398 FILLER_14_97
*399 FILLER_15_105
*400 FILLER_15_111
*401 FILLER_15_113
*402 FILLER_15_125
*403 FILLER_15_137
*404 FILLER_15_149
*405 FILLER_15_15
*406 FILLER_15_161
*407 FILLER_15_167
*408 FILLER_15_169
*409 FILLER_15_181
*410 FILLER_15_193
*411 FILLER_15_205
*412 FILLER_15_217
*413 FILLER_15_223
*414 FILLER_15_225
*415 FILLER_15_237
*416 FILLER_15_249
*417 FILLER_15_261
*418 FILLER_15_27
*419 FILLER_15_273
*420 FILLER_15_279
*421 FILLER_15_281
*422 FILLER_15_293
*423 FILLER_15_3
*424 FILLER_15_39
*425 FILLER_15_51
*426 FILLER_15_55
*427 FILLER_15_57
*428 FILLER_15_69
*429 FILLER_15_81
*430 FILLER_15_93
*431 FILLER_16_109
*432 FILLER_16_121
*433 FILLER_16_133
*434 FILLER_16_139
*435 FILLER_16_141
*436 FILLER_16_15
*437 FILLER_16_153
*438 FILLER_16_165
*439 FILLER_16_177
*440 FILLER_16_189
*441 FILLER_16_195
*442 FILLER_16_197
*443 FILLER_16_209
*444 FILLER_16_221
*445 FILLER_16_233
*446 FILLER_16_245
*447 FILLER_16_251
*448 FILLER_16_253
*449 FILLER_16_265
*450 FILLER_16_27
*451 FILLER_16_277
*452 FILLER_16_289
*453 FILLER_16_29
*454 FILLER_16_293
*455 FILLER_16_297
*456 FILLER_16_3
*457 FILLER_16_41
*458 FILLER_16_53
*459 FILLER_16_65
*460 FILLER_16_77
*461 FILLER_16_83
*462 FILLER_16_85
*463 FILLER_16_97
*464 FILLER_17_105
*465 FILLER_17_111
*466 FILLER_17_113
*467 FILLER_17_125
*468 FILLER_17_137
*469 FILLER_17_149
*470 FILLER_17_161
*471 FILLER_17_167
*472 FILLER_17_169
*473 FILLER_17_181
*474 FILLER_17_193
*475 FILLER_17_20
*476 FILLER_17_205
*477 FILLER_17_217
*478 FILLER_17_223
*479 FILLER_17_225
*480 FILLER_17_237
*481 FILLER_17_249
*482 FILLER_17_261
*483 FILLER_17_273
*484 FILLER_17_279
*485 FILLER_17_281
*486 FILLER_17_293
*487 FILLER_17_297
*488 FILLER_17_3
*489 FILLER_17_32
*490 FILLER_17_44
*491 FILLER_17_57
*492 FILLER_17_69
*493 FILLER_17_8
*494 FILLER_17_81
*495 FILLER_17_93
*496 FILLER_18_109
*497 FILLER_18_121
*498 FILLER_18_133
*499 FILLER_18_139
*500 FILLER_18_141
*501 FILLER_18_153
*502 FILLER_18_165
*503 FILLER_18_177
*504 FILLER_18_189
*505 FILLER_18_195
*506 FILLER_18_197
*507 FILLER_18_209
*508 FILLER_18_21
*509 FILLER_18_221
*510 FILLER_18_233
*511 FILLER_18_245
*512 FILLER_18_251
*513 FILLER_18_253
*514 FILLER_18_265
*515 FILLER_18_27
*516 FILLER_18_277
*517 FILLER_18_289
*518 FILLER_18_29
*519 FILLER_18_297
*520 FILLER_18_3
*521 FILLER_18_41
*522 FILLER_18_53
*523 FILLER_18_65
*524 FILLER_18_77
*525 FILLER_18_83
*526 FILLER_18_85
*527 FILLER_18_9
*528 FILLER_18_97
*529 FILLER_19_105
*530 FILLER_19_111
*531 FILLER_19_113
*532 FILLER_19_125
*533 FILLER_19_137
*534 FILLER_19_149
*535 FILLER_19_15
*536 FILLER_19_161
*537 FILLER_19_167
*538 FILLER_19_169
*539 FILLER_19_181
*540 FILLER_19_193
*541 FILLER_19_205
*542 FILLER_19_217
*543 FILLER_19_223
*544 FILLER_19_225
*545 FILLER_19_237
*546 FILLER_19_249
*547 FILLER_19_261
*548 FILLER_19_27
*549 FILLER_19_273
*550 FILLER_19_279
*551 FILLER_19_281
*552 FILLER_19_293
*553 FILLER_19_3
*554 FILLER_19_39
*555 FILLER_19_51
*556 FILLER_19_55
*557 FILLER_19_57
*558 FILLER_19_69
*559 FILLER_19_81
*560 FILLER_19_93
*561 FILLER_1_105
*562 FILLER_1_111
*563 FILLER_1_113
*564 FILLER_1_125
*565 FILLER_1_137
*566 FILLER_1_149
*567 FILLER_1_15
*568 FILLER_1_161
*569 FILLER_1_167
*570 FILLER_1_169
*571 FILLER_1_181
*572 FILLER_1_193
*573 FILLER_1_205
*574 FILLER_1_217
*575 FILLER_1_223
*576 FILLER_1_225
*577 FILLER_1_237
*578 FILLER_1_249
*579 FILLER_1_261
*580 FILLER_1_27
*581 FILLER_1_273
*582 FILLER_1_279
*583 FILLER_1_281
*584 FILLER_1_293
*585 FILLER_1_297
*586 FILLER_1_3
*587 FILLER_1_39
*588 FILLER_1_51
*589 FILLER_1_55
*590 FILLER_1_57
*591 FILLER_1_69
*592 FILLER_1_81
*593 FILLER_1_93
*594 FILLER_20_109
*595 FILLER_20_121
*596 FILLER_20_133
*597 FILLER_20_139
*598 FILLER_20_141
*599 FILLER_20_153
*600 FILLER_20_165
*601 FILLER_20_177
*602 FILLER_20_189
*603 FILLER_20_195
*604 FILLER_20_197
*605 FILLER_20_20
*606 FILLER_20_209
*607 FILLER_20_221
*608 FILLER_20_233
*609 FILLER_20_245
*610 FILLER_20_251
*611 FILLER_20_253
*612 FILLER_20_265
*613 FILLER_20_277
*614 FILLER_20_289
*615 FILLER_20_29
*616 FILLER_20_293
*617 FILLER_20_297
*618 FILLER_20_3
*619 FILLER_20_41
*620 FILLER_20_53
*621 FILLER_20_65
*622 FILLER_20_77
*623 FILLER_20_8
*624 FILLER_20_83
*625 FILLER_20_85
*626 FILLER_20_97
*627 FILLER_21_105
*628 FILLER_21_111
*629 FILLER_21_113
*630 FILLER_21_125
*631 FILLER_21_137
*632 FILLER_21_149
*633 FILLER_21_15
*634 FILLER_21_161
*635 FILLER_21_167
*636 FILLER_21_169
*637 FILLER_21_181
*638 FILLER_21_193
*639 FILLER_21_205
*640 FILLER_21_217
*641 FILLER_21_223
*642 FILLER_21_225
*643 FILLER_21_237
*644 FILLER_21_249
*645 FILLER_21_261
*646 FILLER_21_27
*647 FILLER_21_273
*648 FILLER_21_279
*649 FILLER_21_281
*650 FILLER_21_293
*651 FILLER_21_297
*652 FILLER_21_3
*653 FILLER_21_39
*654 FILLER_21_51
*655 FILLER_21_55
*656 FILLER_21_57
*657 FILLER_21_69
*658 FILLER_21_81
*659 FILLER_21_93
*660 FILLER_22_109
*661 FILLER_22_121
*662 FILLER_22_133
*663 FILLER_22_139
*664 FILLER_22_141
*665 FILLER_22_153
*666 FILLER_22_165
*667 FILLER_22_177
*668 FILLER_22_189
*669 FILLER_22_195
*670 FILLER_22_197
*671 FILLER_22_209
*672 FILLER_22_21
*673 FILLER_22_221
*674 FILLER_22_233
*675 FILLER_22_245
*676 FILLER_22_251
*677 FILLER_22_253
*678 FILLER_22_265
*679 FILLER_22_27
*680 FILLER_22_277
*681 FILLER_22_289
*682 FILLER_22_29
*683 FILLER_22_297
*684 FILLER_22_3
*685 FILLER_22_41
*686 FILLER_22_53
*687 FILLER_22_65
*688 FILLER_22_77
*689 FILLER_22_83
*690 FILLER_22_85
*691 FILLER_22_9
*692 FILLER_22_97
*693 FILLER_23_105
*694 FILLER_23_111
*695 FILLER_23_113
*696 FILLER_23_125
*697 FILLER_23_137
*698 FILLER_23_149
*699 FILLER_23_15
*700 FILLER_23_161
*701 FILLER_23_167
*702 FILLER_23_169
*703 FILLER_23_181
*704 FILLER_23_193
*705 FILLER_23_205
*706 FILLER_23_217
*707 FILLER_23_223
*708 FILLER_23_225
*709 FILLER_23_237
*710 FILLER_23_249
*711 FILLER_23_261
*712 FILLER_23_27
*713 FILLER_23_273
*714 FILLER_23_279
*715 FILLER_23_281
*716 FILLER_23_293
*717 FILLER_23_297
*718 FILLER_23_3
*719 FILLER_23_39
*720 FILLER_23_51
*721 FILLER_23_55
*722 FILLER_23_57
*723 FILLER_23_69
*724 FILLER_23_81
*725 FILLER_23_93
*726 FILLER_24_109
*727 FILLER_24_121
*728 FILLER_24_133
*729 FILLER_24_139
*730 FILLER_24_141
*731 FILLER_24_153
*732 FILLER_24_165
*733 FILLER_24_177
*734 FILLER_24_189
*735 FILLER_24_195
*736 FILLER_24_197
*737 FILLER_24_20
*738 FILLER_24_209
*739 FILLER_24_221
*740 FILLER_24_233
*741 FILLER_24_245
*742 FILLER_24_251
*743 FILLER_24_253
*744 FILLER_24_265
*745 FILLER_24_277
*746 FILLER_24_289
*747 FILLER_24_29
*748 FILLER_24_297
*749 FILLER_24_3
*750 FILLER_24_41
*751 FILLER_24_53
*752 FILLER_24_65
*753 FILLER_24_77
*754 FILLER_24_8
*755 FILLER_24_83
*756 FILLER_24_85
*757 FILLER_24_97
*758 FILLER_25_105
*759 FILLER_25_111
*760 FILLER_25_113
*761 FILLER_25_125
*762 FILLER_25_137
*763 FILLER_25_143
*764 FILLER_25_147
*765 FILLER_25_159
*766 FILLER_25_167
*767 FILLER_25_169
*768 FILLER_25_181
*769 FILLER_25_193
*770 FILLER_25_205
*771 FILLER_25_21
*772 FILLER_25_217
*773 FILLER_25_223
*774 FILLER_25_225
*775 FILLER_25_237
*776 FILLER_25_249
*777 FILLER_25_261
*778 FILLER_25_273
*779 FILLER_25_279
*780 FILLER_25_281
*781 FILLER_25_293
*782 FILLER_25_297
*783 FILLER_25_3
*784 FILLER_25_33
*785 FILLER_25_45
*786 FILLER_25_53
*787 FILLER_25_57
*788 FILLER_25_69
*789 FILLER_25_81
*790 FILLER_25_9
*791 FILLER_25_93
*792 FILLER_26_109
*793 FILLER_26_121
*794 FILLER_26_133
*795 FILLER_26_139
*796 FILLER_26_141
*797 FILLER_26_153
*798 FILLER_26_165
*799 FILLER_26_177
*800 FILLER_26_189
*801 FILLER_26_195
*802 FILLER_26_197
*803 FILLER_26_20
*804 FILLER_26_209
*805 FILLER_26_221
*806 FILLER_26_233
*807 FILLER_26_245
*808 FILLER_26_251
*809 FILLER_26_253
*810 FILLER_26_265
*811 FILLER_26_277
*812 FILLER_26_289
*813 FILLER_26_29
*814 FILLER_26_297
*815 FILLER_26_3
*816 FILLER_26_34
*817 FILLER_26_46
*818 FILLER_26_58
*819 FILLER_26_70
*820 FILLER_26_8
*821 FILLER_26_82
*822 FILLER_26_85
*823 FILLER_26_97
*824 FILLER_27_105
*825 FILLER_27_111
*826 FILLER_27_113
*827 FILLER_27_125
*828 FILLER_27_137
*829 FILLER_27_149
*830 FILLER_27_15
*831 FILLER_27_154
*832 FILLER_27_166
*833 FILLER_27_169
*834 FILLER_27_181
*835 FILLER_27_193
*836 FILLER_27_205
*837 FILLER_27_217
*838 FILLER_27_223
*839 FILLER_27_225
*840 FILLER_27_237
*841 FILLER_27_249
*842 FILLER_27_261
*843 FILLER_27_27
*844 FILLER_27_273
*845 FILLER_27_279
*846 FILLER_27_281
*847 FILLER_27_293
*848 FILLER_27_297
*849 FILLER_27_3
*850 FILLER_27_39
*851 FILLER_27_51
*852 FILLER_27_55
*853 FILLER_27_57
*854 FILLER_27_69
*855 FILLER_27_81
*856 FILLER_27_93
*857 FILLER_28_109
*858 FILLER_28_121
*859 FILLER_28_133
*860 FILLER_28_139
*861 FILLER_28_141
*862 FILLER_28_153
*863 FILLER_28_165
*864 FILLER_28_177
*865 FILLER_28_189
*866 FILLER_28_195
*867 FILLER_28_197
*868 FILLER_28_20
*869 FILLER_28_209
*870 FILLER_28_221
*871 FILLER_28_233
*872 FILLER_28_245
*873 FILLER_28_251
*874 FILLER_28_253
*875 FILLER_28_265
*876 FILLER_28_277
*877 FILLER_28_289
*878 FILLER_28_29
*879 FILLER_28_293
*880 FILLER_28_297
*881 FILLER_28_3
*882 FILLER_28_41
*883 FILLER_28_53
*884 FILLER_28_65
*885 FILLER_28_77
*886 FILLER_28_8
*887 FILLER_28_83
*888 FILLER_28_85
*889 FILLER_28_97
*890 FILLER_29_105
*891 FILLER_29_111
*892 FILLER_29_113
*893 FILLER_29_125
*894 FILLER_29_137
*895 FILLER_29_149
*896 FILLER_29_15
*897 FILLER_29_161
*898 FILLER_29_167
*899 FILLER_29_169
*900 FILLER_29_181
*901 FILLER_29_193
*902 FILLER_29_205
*903 FILLER_29_217
*904 FILLER_29_223
*905 FILLER_29_225
*906 FILLER_29_237
*907 FILLER_29_249
*908 FILLER_29_261
*909 FILLER_29_27
*910 FILLER_29_273
*911 FILLER_29_279
*912 FILLER_29_281
*913 FILLER_29_293
*914 FILLER_29_3
*915 FILLER_29_39
*916 FILLER_29_51
*917 FILLER_29_55
*918 FILLER_29_57
*919 FILLER_29_69
*920 FILLER_29_81
*921 FILLER_29_9
*922 FILLER_29_93
*923 FILLER_2_109
*924 FILLER_2_121
*925 FILLER_2_133
*926 FILLER_2_139
*927 FILLER_2_141
*928 FILLER_2_153
*929 FILLER_2_165
*930 FILLER_2_177
*931 FILLER_2_189
*932 FILLER_2_195
*933 FILLER_2_197
*934 FILLER_2_20
*935 FILLER_2_209
*936 FILLER_2_221
*937 FILLER_2_233
*938 FILLER_2_245
*939 FILLER_2_251
*940 FILLER_2_253
*941 FILLER_2_265
*942 FILLER_2_277
*943 FILLER_2_289
*944 FILLER_2_29
*945 FILLER_2_293
*946 FILLER_2_297
*947 FILLER_2_3
*948 FILLER_2_41
*949 FILLER_2_53
*950 FILLER_2_65
*951 FILLER_2_77
*952 FILLER_2_8
*953 FILLER_2_83
*954 FILLER_2_85
*955 FILLER_2_97
*956 FILLER_30_109
*957 FILLER_30_121
*958 FILLER_30_133
*959 FILLER_30_139
*960 FILLER_30_141
*961 FILLER_30_15
*962 FILLER_30_153
*963 FILLER_30_165
*964 FILLER_30_177
*965 FILLER_30_189
*966 FILLER_30_195
*967 FILLER_30_197
*968 FILLER_30_209
*969 FILLER_30_221
*970 FILLER_30_233
*971 FILLER_30_245
*972 FILLER_30_251
*973 FILLER_30_253
*974 FILLER_30_265
*975 FILLER_30_27
*976 FILLER_30_277
*977 FILLER_30_285
*978 FILLER_30_29
*979 FILLER_30_290
*980 FILLER_30_297
*981 FILLER_30_3
*982 FILLER_30_41
*983 FILLER_30_53
*984 FILLER_30_65
*985 FILLER_30_77
*986 FILLER_30_83
*987 FILLER_30_85
*988 FILLER_30_97
*989 FILLER_31_105
*990 FILLER_31_111
*991 FILLER_31_113
*992 FILLER_31_125
*993 FILLER_31_137
*994 FILLER_31_149
*995 FILLER_31_15
*996 FILLER_31_161
*997 FILLER_31_167
*998 FILLER_31_169
*999 FILLER_31_181
*1000 FILLER_31_193
*1001 FILLER_31_205
*1002 FILLER_31_217
*1003 FILLER_31_223
*1004 FILLER_31_225
*1005 FILLER_31_237
*1006 FILLER_31_249
*1007 FILLER_31_261
*1008 FILLER_31_27
*1009 FILLER_31_273
*1010 FILLER_31_279
*1011 FILLER_31_281
*1012 FILLER_31_293
*1013 FILLER_31_297
*1014 FILLER_31_3
*1015 FILLER_31_39
*1016 FILLER_31_51
*1017 FILLER_31_55
*1018 FILLER_31_57
*1019 FILLER_31_69
*1020 FILLER_31_81
*1021 FILLER_31_93
*1022 FILLER_32_109
*1023 FILLER_32_121
*1024 FILLER_32_133
*1025 FILLER_32_139
*1026 FILLER_32_141
*1027 FILLER_32_153
*1028 FILLER_32_165
*1029 FILLER_32_177
*1030 FILLER_32_189
*1031 FILLER_32_195
*1032 FILLER_32_197
*1033 FILLER_32_20
*1034 FILLER_32_209
*1035 FILLER_32_221
*1036 FILLER_32_233
*1037 FILLER_32_245
*1038 FILLER_32_251
*1039 FILLER_32_253
*1040 FILLER_32_265
*1041 FILLER_32_277
*1042 FILLER_32_289
*1043 FILLER_32_29
*1044 FILLER_32_293
*1045 FILLER_32_297
*1046 FILLER_32_3
*1047 FILLER_32_41
*1048 FILLER_32_53
*1049 FILLER_32_65
*1050 FILLER_32_77
*1051 FILLER_32_8
*1052 FILLER_32_83
*1053 FILLER_32_85
*1054 FILLER_32_97
*1055 FILLER_33_105
*1056 FILLER_33_111
*1057 FILLER_33_113
*1058 FILLER_33_125
*1059 FILLER_33_137
*1060 FILLER_33_149
*1061 FILLER_33_161
*1062 FILLER_33_167
*1063 FILLER_33_169
*1064 FILLER_33_181
*1065 FILLER_33_193
*1066 FILLER_33_205
*1067 FILLER_33_21
*1068 FILLER_33_217
*1069 FILLER_33_223
*1070 FILLER_33_225
*1071 FILLER_33_237
*1072 FILLER_33_249
*1073 FILLER_33_261
*1074 FILLER_33_273
*1075 FILLER_33_279
*1076 FILLER_33_281
*1077 FILLER_33_287
*1078 FILLER_33_290
*1079 FILLER_33_297
*1080 FILLER_33_3
*1081 FILLER_33_33
*1082 FILLER_33_45
*1083 FILLER_33_53
*1084 FILLER_33_57
*1085 FILLER_33_69
*1086 FILLER_33_81
*1087 FILLER_33_9
*1088 FILLER_33_93
*1089 FILLER_34_109
*1090 FILLER_34_121
*1091 FILLER_34_133
*1092 FILLER_34_139
*1093 FILLER_34_141
*1094 FILLER_34_15
*1095 FILLER_34_153
*1096 FILLER_34_165
*1097 FILLER_34_177
*1098 FILLER_34_189
*1099 FILLER_34_195
*1100 FILLER_34_197
*1101 FILLER_34_209
*1102 FILLER_34_221
*1103 FILLER_34_233
*1104 FILLER_34_245
*1105 FILLER_34_251
*1106 FILLER_34_253
*1107 FILLER_34_265
*1108 FILLER_34_27
*1109 FILLER_34_277
*1110 FILLER_34_289
*1111 FILLER_34_29
*1112 FILLER_34_297
*1113 FILLER_34_3
*1114 FILLER_34_41
*1115 FILLER_34_56
*1116 FILLER_34_68
*1117 FILLER_34_80
*1118 FILLER_34_85
*1119 FILLER_34_97
*1120 FILLER_35_105
*1121 FILLER_35_111
*1122 FILLER_35_113
*1123 FILLER_35_125
*1124 FILLER_35_137
*1125 FILLER_35_149
*1126 FILLER_35_161
*1127 FILLER_35_167
*1128 FILLER_35_169
*1129 FILLER_35_181
*1130 FILLER_35_193
*1131 FILLER_35_20
*1132 FILLER_35_205
*1133 FILLER_35_217
*1134 FILLER_35_223
*1135 FILLER_35_225
*1136 FILLER_35_237
*1137 FILLER_35_249
*1138 FILLER_35_261
*1139 FILLER_35_273
*1140 FILLER_35_279
*1141 FILLER_35_281
*1142 FILLER_35_293
*1143 FILLER_35_297
*1144 FILLER_35_3
*1145 FILLER_35_32
*1146 FILLER_35_44
*1147 FILLER_35_57
*1148 FILLER_35_69
*1149 FILLER_35_8
*1150 FILLER_35_81
*1151 FILLER_35_93
*1152 FILLER_36_109
*1153 FILLER_36_121
*1154 FILLER_36_133
*1155 FILLER_36_139
*1156 FILLER_36_141
*1157 FILLER_36_15
*1158 FILLER_36_153
*1159 FILLER_36_165
*1160 FILLER_36_177
*1161 FILLER_36_189
*1162 FILLER_36_195
*1163 FILLER_36_197
*1164 FILLER_36_209
*1165 FILLER_36_221
*1166 FILLER_36_233
*1167 FILLER_36_245
*1168 FILLER_36_251
*1169 FILLER_36_253
*1170 FILLER_36_265
*1171 FILLER_36_27
*1172 FILLER_36_277
*1173 FILLER_36_289
*1174 FILLER_36_29
*1175 FILLER_36_293
*1176 FILLER_36_297
*1177 FILLER_36_3
*1178 FILLER_36_41
*1179 FILLER_36_53
*1180 FILLER_36_65
*1181 FILLER_36_77
*1182 FILLER_36_83
*1183 FILLER_36_85
*1184 FILLER_36_97
*1185 FILLER_37_110
*1186 FILLER_37_113
*1187 FILLER_37_125
*1188 FILLER_37_137
*1189 FILLER_37_149
*1190 FILLER_37_161
*1191 FILLER_37_167
*1192 FILLER_37_169
*1193 FILLER_37_181
*1194 FILLER_37_193
*1195 FILLER_37_205
*1196 FILLER_37_21
*1197 FILLER_37_217
*1198 FILLER_37_223
*1199 FILLER_37_225
*1200 FILLER_37_237
*1201 FILLER_37_249
*1202 FILLER_37_261
*1203 FILLER_37_273
*1204 FILLER_37_279
*1205 FILLER_37_281
*1206 FILLER_37_289
*1207 FILLER_37_297
*1208 FILLER_37_3
*1209 FILLER_37_33
*1210 FILLER_37_45
*1211 FILLER_37_54
*1212 FILLER_37_57
*1213 FILLER_37_62
*1214 FILLER_37_74
*1215 FILLER_37_86
*1216 FILLER_37_9
*1217 FILLER_37_98
*1218 FILLER_38_109
*1219 FILLER_38_121
*1220 FILLER_38_133
*1221 FILLER_38_139
*1222 FILLER_38_141
*1223 FILLER_38_15
*1224 FILLER_38_153
*1225 FILLER_38_165
*1226 FILLER_38_177
*1227 FILLER_38_189
*1228 FILLER_38_195
*1229 FILLER_38_197
*1230 FILLER_38_209
*1231 FILLER_38_221
*1232 FILLER_38_233
*1233 FILLER_38_245
*1234 FILLER_38_251
*1235 FILLER_38_253
*1236 FILLER_38_265
*1237 FILLER_38_27
*1238 FILLER_38_277
*1239 FILLER_38_289
*1240 FILLER_38_29
*1241 FILLER_38_293
*1242 FILLER_38_297
*1243 FILLER_38_3
*1244 FILLER_38_41
*1245 FILLER_38_53
*1246 FILLER_38_65
*1247 FILLER_38_77
*1248 FILLER_38_83
*1249 FILLER_38_85
*1250 FILLER_38_97
*1251 FILLER_39_110
*1252 FILLER_39_113
*1253 FILLER_39_125
*1254 FILLER_39_137
*1255 FILLER_39_149
*1256 FILLER_39_155
*1257 FILLER_39_159
*1258 FILLER_39_167
*1259 FILLER_39_169
*1260 FILLER_39_181
*1261 FILLER_39_193
*1262 FILLER_39_20
*1263 FILLER_39_205
*1264 FILLER_39_217
*1265 FILLER_39_223
*1266 FILLER_39_225
*1267 FILLER_39_237
*1268 FILLER_39_249
*1269 FILLER_39_261
*1270 FILLER_39_273
*1271 FILLER_39_279
*1272 FILLER_39_281
*1273 FILLER_39_293
*1274 FILLER_39_3
*1275 FILLER_39_32
*1276 FILLER_39_44
*1277 FILLER_39_57
*1278 FILLER_39_62
*1279 FILLER_39_74
*1280 FILLER_39_8
*1281 FILLER_39_86
*1282 FILLER_39_98
*1283 FILLER_3_105
*1284 FILLER_3_111
*1285 FILLER_3_113
*1286 FILLER_3_125
*1287 FILLER_3_137
*1288 FILLER_3_149
*1289 FILLER_3_161
*1290 FILLER_3_167
*1291 FILLER_3_169
*1292 FILLER_3_181
*1293 FILLER_3_193
*1294 FILLER_3_20
*1295 FILLER_3_205
*1296 FILLER_3_217
*1297 FILLER_3_223
*1298 FILLER_3_225
*1299 FILLER_3_237
*1300 FILLER_3_249
*1301 FILLER_3_261
*1302 FILLER_3_273
*1303 FILLER_3_279
*1304 FILLER_3_281
*1305 FILLER_3_293
*1306 FILLER_3_3
*1307 FILLER_3_32
*1308 FILLER_3_44
*1309 FILLER_3_57
*1310 FILLER_3_69
*1311 FILLER_3_8
*1312 FILLER_3_81
*1313 FILLER_3_93
*1314 FILLER_40_109
*1315 FILLER_40_121
*1316 FILLER_40_133
*1317 FILLER_40_139
*1318 FILLER_40_141
*1319 FILLER_40_145
*1320 FILLER_40_149
*1321 FILLER_40_158
*1322 FILLER_40_168
*1323 FILLER_40_178
*1324 FILLER_40_190
*1325 FILLER_40_197
*1326 FILLER_40_209
*1327 FILLER_40_21
*1328 FILLER_40_221
*1329 FILLER_40_233
*1330 FILLER_40_245
*1331 FILLER_40_251
*1332 FILLER_40_253
*1333 FILLER_40_265
*1334 FILLER_40_27
*1335 FILLER_40_277
*1336 FILLER_40_289
*1337 FILLER_40_29
*1338 FILLER_40_293
*1339 FILLER_40_297
*1340 FILLER_40_3
*1341 FILLER_40_41
*1342 FILLER_40_53
*1343 FILLER_40_62
*1344 FILLER_40_71
*1345 FILLER_40_83
*1346 FILLER_40_85
*1347 FILLER_40_9
*1348 FILLER_40_97
*1349 FILLER_41_107
*1350 FILLER_41_111
*1351 FILLER_41_113
*1352 FILLER_41_125
*1353 FILLER_41_137
*1354 FILLER_41_143
*1355 FILLER_41_147
*1356 FILLER_41_15
*1357 FILLER_41_156
*1358 FILLER_41_166
*1359 FILLER_41_169
*1360 FILLER_41_179
*1361 FILLER_41_189
*1362 FILLER_41_201
*1363 FILLER_41_213
*1364 FILLER_41_221
*1365 FILLER_41_225
*1366 FILLER_41_237
*1367 FILLER_41_249
*1368 FILLER_41_261
*1369 FILLER_41_27
*1370 FILLER_41_273
*1371 FILLER_41_279
*1372 FILLER_41_281
*1373 FILLER_41_289
*1374 FILLER_41_297
*1375 FILLER_41_3
*1376 FILLER_41_39
*1377 FILLER_41_54
*1378 FILLER_41_57
*1379 FILLER_41_64
*1380 FILLER_41_71
*1381 FILLER_41_83
*1382 FILLER_41_95
*1383 FILLER_42_109
*1384 FILLER_42_114
*1385 FILLER_42_126
*1386 FILLER_42_131
*1387 FILLER_42_139
*1388 FILLER_42_141
*1389 FILLER_42_145
*1390 FILLER_42_15
*1391 FILLER_42_152
*1392 FILLER_42_164
*1393 FILLER_42_170
*1394 FILLER_42_179
*1395 FILLER_42_191
*1396 FILLER_42_195
*1397 FILLER_42_197
*1398 FILLER_42_209
*1399 FILLER_42_221
*1400 FILLER_42_233
*1401 FILLER_42_245
*1402 FILLER_42_251
*1403 FILLER_42_253
*1404 FILLER_42_265
*1405 FILLER_42_27
*1406 FILLER_42_277
*1407 FILLER_42_289
*1408 FILLER_42_29
*1409 FILLER_42_293
*1410 FILLER_42_297
*1411 FILLER_42_3
*1412 FILLER_42_41
*1413 FILLER_42_53
*1414 FILLER_42_67
*1415 FILLER_42_79
*1416 FILLER_42_83
*1417 FILLER_42_85
*1418 FILLER_42_97
*1419 FILLER_43_109
*1420 FILLER_43_113
*1421 FILLER_43_125
*1422 FILLER_43_129
*1423 FILLER_43_137
*1424 FILLER_43_144
*1425 FILLER_43_154
*1426 FILLER_43_166
*1427 FILLER_43_169
*1428 FILLER_43_179
*1429 FILLER_43_191
*1430 FILLER_43_20
*1431 FILLER_43_201
*1432 FILLER_43_211
*1433 FILLER_43_223
*1434 FILLER_43_225
*1435 FILLER_43_237
*1436 FILLER_43_249
*1437 FILLER_43_261
*1438 FILLER_43_273
*1439 FILLER_43_279
*1440 FILLER_43_281
*1441 FILLER_43_293
*1442 FILLER_43_297
*1443 FILLER_43_3
*1444 FILLER_43_32
*1445 FILLER_43_44
*1446 FILLER_43_50
*1447 FILLER_43_54
*1448 FILLER_43_57
*1449 FILLER_43_66
*1450 FILLER_43_73
*1451 FILLER_43_8
*1452 FILLER_43_85
*1453 FILLER_43_97
*1454 FILLER_44_109
*1455 FILLER_44_121
*1456 FILLER_44_133
*1457 FILLER_44_139
*1458 FILLER_44_141
*1459 FILLER_44_151
*1460 FILLER_44_163
*1461 FILLER_44_171
*1462 FILLER_44_181
*1463 FILLER_44_191
*1464 FILLER_44_195
*1465 FILLER_44_197
*1466 FILLER_44_209
*1467 FILLER_44_21
*1468 FILLER_44_221
*1469 FILLER_44_233
*1470 FILLER_44_245
*1471 FILLER_44_251
*1472 FILLER_44_253
*1473 FILLER_44_265
*1474 FILLER_44_27
*1475 FILLER_44_277
*1476 FILLER_44_289
*1477 FILLER_44_29
*1478 FILLER_44_297
*1479 FILLER_44_3
*1480 FILLER_44_41
*1481 FILLER_44_53
*1482 FILLER_44_57
*1483 FILLER_44_61
*1484 FILLER_44_73
*1485 FILLER_44_81
*1486 FILLER_44_85
*1487 FILLER_44_9
*1488 FILLER_44_97
*1489 FILLER_45_105
*1490 FILLER_45_111
*1491 FILLER_45_113
*1492 FILLER_45_125
*1493 FILLER_45_137
*1494 FILLER_45_149
*1495 FILLER_45_15
*1496 FILLER_45_155
*1497 FILLER_45_162
*1498 FILLER_45_169
*1499 FILLER_45_173
*1500 FILLER_45_180
*1501 FILLER_45_190
*1502 FILLER_45_202
*1503 FILLER_45_214
*1504 FILLER_45_222
*1505 FILLER_45_225
*1506 FILLER_45_237
*1507 FILLER_45_249
*1508 FILLER_45_261
*1509 FILLER_45_27
*1510 FILLER_45_273
*1511 FILLER_45_279
*1512 FILLER_45_281
*1513 FILLER_45_289
*1514 FILLER_45_297
*1515 FILLER_45_3
*1516 FILLER_45_39
*1517 FILLER_45_51
*1518 FILLER_45_55
*1519 FILLER_45_57
*1520 FILLER_45_69
*1521 FILLER_45_81
*1522 FILLER_45_93
*1523 FILLER_46_109
*1524 FILLER_46_121
*1525 FILLER_46_133
*1526 FILLER_46_139
*1527 FILLER_46_141
*1528 FILLER_46_15
*1529 FILLER_46_153
*1530 FILLER_46_157
*1531 FILLER_46_164
*1532 FILLER_46_173
*1533 FILLER_46_185
*1534 FILLER_46_193
*1535 FILLER_46_197
*1536 FILLER_46_209
*1537 FILLER_46_221
*1538 FILLER_46_233
*1539 FILLER_46_245
*1540 FILLER_46_251
*1541 FILLER_46_253
*1542 FILLER_46_265
*1543 FILLER_46_27
*1544 FILLER_46_277
*1545 FILLER_46_289
*1546 FILLER_46_29
*1547 FILLER_46_293
*1548 FILLER_46_297
*1549 FILLER_46_3
*1550 FILLER_46_41
*1551 FILLER_46_53
*1552 FILLER_46_65
*1553 FILLER_46_77
*1554 FILLER_46_83
*1555 FILLER_46_85
*1556 FILLER_46_97
*1557 FILLER_47_105
*1558 FILLER_47_111
*1559 FILLER_47_113
*1560 FILLER_47_125
*1561 FILLER_47_137
*1562 FILLER_47_149
*1563 FILLER_47_161
*1564 FILLER_47_167
*1565 FILLER_47_169
*1566 FILLER_47_181
*1567 FILLER_47_193
*1568 FILLER_47_20
*1569 FILLER_47_205
*1570 FILLER_47_217
*1571 FILLER_47_223
*1572 FILLER_47_225
*1573 FILLER_47_237
*1574 FILLER_47_249
*1575 FILLER_47_261
*1576 FILLER_47_273
*1577 FILLER_47_279
*1578 FILLER_47_281
*1579 FILLER_47_293
*1580 FILLER_47_297
*1581 FILLER_47_3
*1582 FILLER_47_32
*1583 FILLER_47_44
*1584 FILLER_47_57
*1585 FILLER_47_69
*1586 FILLER_47_8
*1587 FILLER_47_81
*1588 FILLER_47_93
*1589 FILLER_48_109
*1590 FILLER_48_121
*1591 FILLER_48_133
*1592 FILLER_48_139
*1593 FILLER_48_141
*1594 FILLER_48_153
*1595 FILLER_48_165
*1596 FILLER_48_177
*1597 FILLER_48_189
*1598 FILLER_48_195
*1599 FILLER_48_197
*1600 FILLER_48_209
*1601 FILLER_48_21
*1602 FILLER_48_221
*1603 FILLER_48_233
*1604 FILLER_48_245
*1605 FILLER_48_251
*1606 FILLER_48_253
*1607 FILLER_48_265
*1608 FILLER_48_27
*1609 FILLER_48_277
*1610 FILLER_48_285
*1611 FILLER_48_29
*1612 FILLER_48_290
*1613 FILLER_48_297
*1614 FILLER_48_3
*1615 FILLER_48_41
*1616 FILLER_48_53
*1617 FILLER_48_65
*1618 FILLER_48_77
*1619 FILLER_48_83
*1620 FILLER_48_85
*1621 FILLER_48_9
*1622 FILLER_48_97
*1623 FILLER_49_105
*1624 FILLER_49_111
*1625 FILLER_49_113